<routes>

<vType id="carro" sigma="0.5" vClass="passenger" guiShape="passenger"/>

<vType id="carro1" sigma="0.5" vClass="passenger" guiShape="passenger/van"/>

<vType id="camião" sigma="0.5" vClass="truck" guiShape="truck"/>

<vType id="trailer" sigma="0.5" vClass="trailer" guiShape="truck/trailer"/>

<vType id="onibus" sigma="0.5" vClass="bus" guiShape="bus"/>

<vType id="bici" sigma="0.5" vClass="bicycle" guiShape="bicycle"/>

<vType id="moto" sigma="0.5" vClass="motorcycle" guiShape="motorcycle"/>




<route id="route1" edges="orillas1 orillas2"/>

<route id="route2" edges="nueval1 nueval2"/>

<route id="route3" edges="guaya5 nueval2"/>

<route id="route4" edges="orillas1 guaya3 guaya4"/>

<route id="route5" edges=" guaya1 guaya2 guaya3 nueval2"/>








<flow id="pitas-rosal" begin="0" end= "5400" period="100" route="route1" type="onibus"  />
<flow id="pitas-rosal1" begin="0" end= "5400" period="100" route="route2" type="onibus"/>

<flow id="borja-isidro" begin="0" end= "5400" period="150" route="route3" type="carro"/>

<flow id="paraiso-sol" begin="0" end= "5400" period="160" route="route5" type="camião"/>

<flow id="sauces-julio" begin="0" end= "5400" period="170" route="route4" type="trailer"/>

<flow id="colinas-lojanas1" begin="240" end= "5400" period="180" route="route2" type="bici"/>

<flow id="sauces-julio1" begin="300" end= "5400" period="170" route="route2" type="trailer"/>

<flow id="colinas-lojanas" begin="300" end= "5400" period="180" route="route1" type="bici"/>

<flow id="motupe-punzara" begin="300" end= "5400" period="200" route="route3" type="moto"/>











</routes>

