<?xml version="1.0" encoding="UTF-8"?>

<!-- generated on 08/21/19 08:01:15 by Eclipse SUMO netedit Version 1.2.0
<configuration xmlns:xsi="http://www.w3.org/2001/XMLSchema-instance" xsi:noNamespaceSchemaLocation="http://sumo.dlr.de/xsd/netconvertConfiguration.xsd">

    <input>
        <sumo-net-file value="C:\Users\Dell\Desktop\Hipervalle.net.xml"/>
    </input>

    <output>
        <output-file value="C:\Users\Dell\Desktop\Hipervalle.net.xml"/>
    </output>

    <processing>
        <geometry.max-grade.fix value="false"/>
        <offset.disable-normalization value="true"/>
        <lefthand value="false"/>
    </processing>

    <junctions>
        <no-turnarounds value="true"/>
        <junctions.corner-detail value="5"/>
        <junctions.limit-turn-speed value="5.5"/>
        <rectangular-lane-cut value="false"/>
    </junctions>

    <pedestrian>
        <walkingareas value="false"/>
    </pedestrian>

</configuration>
-->

<net version="1.1" junctionCornerDetail="5" limitTurnSpeed="5.50" xmlns:xsi="http://www.w3.org/2001/XMLSchema-instance" xsi:noNamespaceSchemaLocation="http://sumo.dlr.de/xsd/net_file.xsd">

    <location netOffset="-699361.19,441811.00" convBoundary="0.00,0.00,668.90,2075.04" origBoundary="-79.204380,-3.995155,-79.198326,-3.975264" projParameter="+proj=utm +zone=17 +ellps=WGS84 +datum=WGS84 +units=m +no_defs"/>

    <type id="highway.bridleway" priority="1" numLanes="1" speed="2.78" allow="pedestrian" oneway="1" width="2.00"/>
    <type id="highway.bus_guideway" priority="1" numLanes="1" speed="27.78" allow="bus" oneway="1"/>
    <type id="highway.cycleway" priority="1" numLanes="1" speed="8.33" allow="bicycle" oneway="0" width="1.00"/>
    <type id="highway.footway" priority="1" numLanes="1" speed="2.78" allow="pedestrian" oneway="1" width="2.00"/>
    <type id="highway.ford" priority="1" numLanes="1" speed="2.78" allow="army" oneway="0"/>
    <type id="highway.living_street" priority="2" numLanes="1" speed="2.78" disallow="tram rail_urban rail rail_electric ship" oneway="0"/>
    <type id="highway.motorway" priority="14" numLanes="2" speed="39.44" allow="private emergency authority army vip passenger hov taxi bus coach delivery truck trailer motorcycle evehicle custom1 custom2" oneway="1"/>
    <type id="highway.motorway_link" priority="9" numLanes="1" speed="22.22" allow="private emergency authority army vip passenger hov taxi bus coach delivery truck trailer motorcycle evehicle custom1 custom2" oneway="1"/>
    <type id="highway.path" priority="1" numLanes="1" speed="2.78" allow="bicycle pedestrian" oneway="1" width="2.00"/>
    <type id="highway.pedestrian" priority="1" numLanes="1" speed="2.78" allow="pedestrian" oneway="1" width="2.00"/>
    <type id="highway.primary" priority="12" numLanes="2" speed="27.78" disallow="tram rail_urban rail rail_electric ship" oneway="0"/>
    <type id="highway.primary_link" priority="7" numLanes="1" speed="22.22" disallow="tram rail_urban rail rail_electric ship" oneway="0"/>
    <type id="highway.raceway" priority="15" numLanes="2" speed="83.33" allow="vip" oneway="0"/>
    <type id="highway.residential" priority="3" numLanes="1" speed="13.89" disallow="tram rail_urban rail rail_electric ship" oneway="0"/>
    <type id="highway.secondary" priority="11" numLanes="2" speed="27.78" disallow="tram rail_urban rail rail_electric ship" oneway="0"/>
    <type id="highway.secondary_link" priority="6" numLanes="1" speed="22.22" disallow="tram rail_urban rail rail_electric ship" oneway="0"/>
    <type id="highway.service" priority="1" numLanes="1" speed="5.56" allow="delivery bicycle pedestrian" oneway="0"/>
    <type id="highway.stairs" priority="1" numLanes="1" speed="1.39" allow="pedestrian" oneway="1" width="2.00"/>
    <type id="highway.step" priority="1" numLanes="1" speed="1.39" allow="pedestrian" oneway="1" width="2.00"/>
    <type id="highway.steps" priority="1" numLanes="1" speed="1.39" allow="pedestrian" oneway="1" width="2.00"/>
    <type id="highway.tertiary" priority="10" numLanes="1" speed="22.22" disallow="tram rail_urban rail rail_electric ship" oneway="0"/>
    <type id="highway.tertiary_link" priority="5" numLanes="1" speed="22.22" disallow="tram rail_urban rail rail_electric ship" oneway="0"/>
    <type id="highway.track" priority="1" numLanes="1" speed="5.56" disallow="tram rail_urban rail rail_electric ship" oneway="0"/>
    <type id="highway.trunk" priority="13" numLanes="2" speed="27.78" disallow="tram rail_urban rail rail_electric bicycle pedestrian ship" oneway="0"/>
    <type id="highway.trunk_link" priority="8" numLanes="1" speed="22.22" disallow="tram rail_urban rail rail_electric bicycle pedestrian ship" oneway="0"/>
    <type id="highway.unclassified" priority="4" numLanes="1" speed="13.89" disallow="tram rail_urban rail rail_electric ship" oneway="0"/>
    <type id="highway.unsurfaced" priority="1" numLanes="1" speed="8.33" disallow="tram rail_urban rail rail_electric ship" oneway="0"/>
    <type id="railway.light_rail" priority="19" numLanes="1" speed="27.78" allow="rail_urban" oneway="1"/>
    <type id="railway.preserved" priority="16" numLanes="1" speed="27.78" allow="rail" oneway="1"/>
    <type id="railway.rail" priority="20" numLanes="1" speed="83.33" allow="rail rail_electric" oneway="1"/>
    <type id="railway.subway" priority="18" numLanes="1" speed="27.78" allow="rail_urban" oneway="1"/>
    <type id="railway.tram" priority="17" numLanes="1" speed="13.89" allow="tram" oneway="1"/>

    <edge id=":1431442689_0" function="internal">
        <lane id=":1431442689_0_0" index="0" disallow="tram rail_urban rail rail_electric ship" speed="13.89" length="14.65" shape="260.78,1490.28 256.84,1476.17"/>
    </edge>
    <edge id=":1431442689_1" function="internal">
        <lane id=":1431442689_1_0" index="0" disallow="tram rail_urban rail rail_electric ship" speed="7.95" length="6.23" shape="260.78,1490.28 260.16,1486.40 260.73,1484.17"/>
    </edge>
    <edge id=":1431442689_2" function="internal">
        <lane id=":1431442689_2_0" index="0" disallow="tram rail_urban rail rail_electric ship" speed="3.65" length="2.34" shape="260.78,1490.28 261.19,1488.90 261.83,1488.28"/>
    </edge>
    <edge id=":1431442689_9" function="internal">
        <lane id=":1431442689_9_0" index="0" disallow="tram rail_urban rail rail_electric ship" speed="7.95" length="8.06" shape="260.73,1484.17 260.95,1483.28 263.15,1480.93 266.75,1479.35"/>
    </edge>
    <edge id=":1431442689_10" function="internal">
        <lane id=":1431442689_10_0" index="0" disallow="tram rail_urban rail rail_electric ship" speed="3.65" length="2.34" shape="261.83,1488.28 262.72,1488.43 263.83,1489.34"/>
    </edge>
    <edge id=":1431442689_3" function="internal">
        <lane id=":1431442689_3_0" index="0" disallow="tram rail_urban rail rail_electric ship" speed="6.45" length="9.04" shape="267.61,1482.43 265.33,1483.43 263.95,1484.92 263.45,1486.89 263.83,1489.34"/>
    </edge>
    <edge id=":1431442689_4" function="internal">
        <lane id=":1431442689_4_0" index="0" disallow="tram rail_urban rail rail_electric ship" speed="7.95" length="14.30" shape="267.61,1482.43 263.71,1482.94 260.62,1482.07 258.32,1479.81 256.84,1476.17"/>
    </edge>
    <edge id=":1431442689_5" function="internal">
        <lane id=":1431442689_5_0" index="0" disallow="tram rail_urban rail rail_electric ship" speed="3.65" length="4.67" shape="267.61,1482.43 266.24,1481.98 265.64,1481.32 265.81,1480.44 266.75,1479.35"/>
    </edge>
    <edge id=":1431442689_6" function="internal">
        <lane id=":1431442689_6_0" index="0" disallow="tram rail_urban rail rail_electric ship" speed="6.45" length="9.03" shape="259.94,1475.39 260.88,1477.69 262.33,1479.12 264.29,1479.67 266.75,1479.35"/>
    </edge>
    <edge id=":1431442689_7" function="internal">
        <lane id=":1431442689_7_0" index="0" disallow="tram rail_urban rail rail_electric ship" speed="13.89" length="14.48" shape="259.94,1475.39 263.83,1489.34"/>
    </edge>
    <edge id=":1431442689_8" function="internal">
        <lane id=":1431442689_8_0" index="0" disallow="tram rail_urban rail rail_electric ship" speed="3.65" length="2.34" shape="259.94,1475.39 259.46,1476.75 258.78,1477.33"/>
    </edge>
    <edge id=":1431442689_11" function="internal">
        <lane id=":1431442689_11_0" index="0" disallow="tram rail_urban rail rail_electric ship" speed="3.65" length="2.34" shape="258.78,1477.33 257.91,1477.14 256.84,1476.17"/>
    </edge>
    <edge id=":1431442701_0" function="internal">
        <lane id=":1431442701_0_0" index="0" disallow="tram rail_urban rail rail_electric ship" speed="6.57" length="9.08" shape="237.17,1397.57 236.23,1395.25 234.78,1393.78 232.83,1393.15 230.37,1393.35"/>
    </edge>
    <edge id=":1431442701_1" function="internal">
        <lane id=":1431442701_1_0" index="0" disallow="tram rail_urban rail rail_electric ship" speed="8.00" length="14.20" shape="237.17,1397.57 236.77,1393.70 237.70,1390.63 239.97,1388.36 243.57,1386.90"/>
    </edge>
    <edge id=":1431442701_2" function="internal">
        <lane id=":1431442701_2_0" index="0" disallow="tram rail_urban rail rail_electric ship" speed="3.65" length="4.67" shape="237.17,1397.57 237.65,1396.21 238.33,1395.63 239.20,1395.82 240.27,1396.79"/>
    </edge>
    <edge id=":1431442701_3" function="internal">
        <lane id=":1431442701_3_0" index="0" disallow="tram rail_urban rail rail_electric ship" speed="6.50" length="9.03" shape="244.35,1390.00 242.05,1390.93 240.61,1392.38 240.02,1394.33 240.27,1396.79"/>
    </edge>
    <edge id=":1431442701_4" function="internal">
        <lane id=":1431442701_4_0" index="0" disallow="tram rail_urban rail rail_electric ship" speed="13.89" length="14.37" shape="244.35,1390.00 230.37,1393.35"/>
    </edge>
    <edge id=":1431442701_5" function="internal">
        <lane id=":1431442701_5_0" index="0" disallow="tram rail_urban rail rail_electric ship" speed="3.65" length="2.34" shape="244.35,1390.00 242.99,1389.52 242.41,1388.84"/>
    </edge>
    <edge id=":1431442701_9" function="internal">
        <lane id=":1431442701_9_0" index="0" disallow="tram rail_urban rail rail_electric ship" speed="3.65" length="2.34" shape="242.41,1388.84 242.60,1387.96 243.57,1386.90"/>
    </edge>
    <edge id=":1431442701_6" function="internal">
        <lane id=":1431442701_6_0" index="0" disallow="tram rail_urban rail rail_electric ship" speed="13.89" length="14.32" shape="229.65,1390.23 243.57,1386.90"/>
    </edge>
    <edge id=":1431442701_7" function="internal">
        <lane id=":1431442701_7_0" index="0" disallow="tram rail_urban rail rail_electric ship" speed="8.05" length="5.82" shape="229.65,1390.23 233.50,1389.91 235.36,1390.51"/>
    </edge>
    <edge id=":1431442701_8" function="internal">
        <lane id=":1431442701_8_0" index="0" disallow="tram rail_urban rail rail_electric ship" speed="3.65" length="2.34" shape="229.65,1390.23 231.00,1390.74 231.57,1391.43"/>
    </edge>
    <edge id=":1431442701_10" function="internal">
        <lane id=":1431442701_10_0" index="0" disallow="tram rail_urban rail rail_electric ship" speed="8.05" length="8.36" shape="235.36,1390.51 236.55,1390.90 238.81,1393.19 240.27,1396.79"/>
    </edge>
    <edge id=":1431442701_11" function="internal">
        <lane id=":1431442701_11_0" index="0" disallow="tram rail_urban rail rail_electric ship" speed="3.65" length="2.34" shape="231.57,1391.43 231.36,1392.30 230.37,1393.35"/>
    </edge>
    <edge id=":1431442705_0" function="internal">
        <lane id=":1431442705_0_0" index="0" disallow="tram rail_urban rail rail_electric ship" speed="3.65" length="4.67" shape="324.24,1365.79 325.61,1366.24 326.20,1366.91 326.03,1367.79 325.08,1368.87"/>
    </edge>
    <edge id=":1431448505_0" function="internal">
        <lane id=":1431448505_0_0" index="0" disallow="tram rail_urban rail rail_electric ship" speed="3.65" length="4.67" shape="306.45,1468.26 307.82,1468.71 308.42,1469.37 308.25,1470.25 307.31,1471.34"/>
    </edge>
    <edge id=":2986448404_0" function="internal">
        <lane id=":2986448404_0_0" index="0" allow="bicycle" speed="2.04" length="1.46" width="1.00" shape="206.66,946.13 206.58,945.69 206.68,945.43 206.94,945.35 207.38,945.45"/>
    </edge>
    <edge id=":367906596_0" function="internal">
        <lane id=":367906596_0_0" index="0" disallow="tram rail_urban rail rail_electric ship" speed="3.65" length="4.67" shape="0.24,1569.49 -1.06,1568.88 -1.58,1568.15 -1.31,1567.30 -0.24,1566.33"/>
    </edge>
    <edge id=":367910458_0" function="internal">
        <lane id=":367910458_0_0" index="0" disallow="tram rail_urban rail rail_electric ship" speed="3.65" length="4.67" shape="317.03,1509.70 318.35,1510.28 318.89,1511.00 318.63,1511.86 317.59,1512.86"/>
    </edge>
    <edge id=":367910670_0" function="internal">
        <lane id=":367910670_0_0" index="0" disallow="tram rail_urban rail rail_electric ship" speed="6.27" length="9.04" shape="159.53,1552.02 159.13,1549.53 158.03,1547.86 156.22,1547.01 153.70,1546.97"/>
    </edge>
    <edge id=":367910670_1" function="internal">
        <lane id=":367910670_1_0" index="0" disallow="tram rail_urban rail rail_electric ship" speed="20.84" length="21.87" shape="159.53,1552.02 159.28,1530.14"/>
        <lane id=":367910670_1_1" index="1" disallow="tram rail_urban rail rail_electric ship" speed="20.84" length="21.87" shape="162.73,1551.97 162.48,1530.11"/>
    </edge>
    <edge id=":367910670_3" function="internal">
        <lane id=":367910670_3_0" index="0" disallow="tram rail_urban rail rail_electric ship" speed="9.15" length="16.43" shape="162.73,1551.97 163.05,1546.34 164.18,1542.15 166.14,1539.40 168.92,1538.09"/>
    </edge>
    <edge id=":367910670_4" function="internal">
        <lane id=":367910670_4_0" index="0" disallow="tram rail_urban rail rail_electric ship" speed="13.89" length="16.50" shape="170.08,1544.38 153.70,1546.97"/>
        <lane id=":367910670_4_1" index="1" disallow="tram rail_urban rail rail_electric ship" speed="13.89" length="16.50" shape="169.50,1541.24 153.29,1543.80"/>
    </edge>
    <edge id=":367910670_6" function="internal">
        <lane id=":367910670_6_0" index="0" disallow="tram rail_urban rail rail_electric ship" speed="7.79" length="7.11" shape="169.50,1541.24 166.47,1541.02 164.29,1539.10 163.89,1538.01"/>
    </edge>
    <edge id=":367910670_7" function="internal">
        <lane id=":367910670_7_0" index="0" disallow="tram rail_urban rail rail_electric ship" speed="3.65" length="2.34" shape="169.50,1541.24 168.18,1540.67 167.64,1539.96"/>
    </edge>
    <edge id=":367910670_12" function="internal">
        <lane id=":367910670_12_0" index="0" disallow="tram rail_urban rail rail_electric ship" speed="7.79" length="8.08" shape="163.89,1538.01 162.96,1535.46 162.48,1530.11"/>
    </edge>
    <edge id=":367910670_13" function="internal">
        <lane id=":367910670_13_0" index="0" disallow="tram rail_urban rail rail_electric ship" speed="3.65" length="2.34" shape="167.64,1539.96 167.88,1539.10 168.92,1538.09"/>
    </edge>
    <edge id=":367910670_8" function="internal">
        <lane id=":367910670_8_0" index="0" disallow="tram rail_urban rail rail_electric ship" speed="7.47" length="11.12" shape="152.47,1537.45 155.47,1536.66 157.60,1535.18 158.87,1533.00 159.28,1530.14"/>
    </edge>
    <edge id=":367910670_9" function="internal">
        <lane id=":367910670_9_0" index="0" disallow="tram rail_urban rail rail_electric ship" speed="8.81" length="15.84" shape="152.88,1540.62 157.11,1539.50 160.12,1537.37 161.91,1534.24 162.48,1530.11"/>
    </edge>
    <edge id=":367910670_10" function="internal">
        <lane id=":367910670_10_0" index="0" disallow="tram rail_urban rail rail_electric ship" speed="13.89" length="16.58" shape="152.88,1540.62 157.60,1539.50 160.63,1537.95 163.65,1536.32 168.34,1534.94"/>
    </edge>
    <edge id=":367910670_11" function="internal">
        <lane id=":367910670_11_0" index="0" disallow="tram rail_urban rail rail_electric ship" speed="3.65" length="2.34" shape="152.88,1540.62 154.17,1541.26 154.67,1542.01"/>
    </edge>
    <edge id=":367910670_14" function="internal">
        <lane id=":367910670_14_0" index="0" disallow="tram rail_urban rail rail_electric ship" speed="3.65" length="2.34" shape="154.67,1542.01 154.37,1542.85 153.29,1543.80"/>
    </edge>
    <edge id=":436639252_0" function="internal">
        <lane id=":436639252_0_0" index="0" disallow="tram rail_urban rail rail_electric ship" speed="6.73" length="9.69" shape="272.04,1530.02 271.13,1527.65 269.61,1526.13 267.47,1525.48 264.71,1525.68"/>
    </edge>
    <edge id=":436639252_1" function="internal">
        <lane id=":436639252_1_0" index="0" disallow="tram rail_urban rail rail_electric ship" speed="13.89" length="21.09" shape="272.04,1530.02 270.98,1525.44 269.55,1519.77 268.03,1514.12 266.73,1509.61"/>
    </edge>
    <edge id=":436639252_2" function="internal">
        <lane id=":436639252_2_0" index="0" disallow="tram rail_urban rail rail_electric ship" speed="8.61" length="7.39" shape="272.04,1530.02 271.49,1524.71 271.93,1522.70"/>
    </edge>
    <edge id=":436639252_3" function="internal">
        <lane id=":436639252_3_0" index="0" disallow="tram rail_urban rail rail_electric ship" speed="3.65" length="2.34" shape="272.04,1530.02 272.57,1528.68 273.27,1528.12"/>
    </edge>
    <edge id=":436639252_18" function="internal">
        <lane id=":436639252_18_0" index="0" disallow="tram rail_urban rail rail_electric ship" speed="8.61" length="9.65" shape="271.93,1522.70 272.38,1520.69 274.70,1517.97 278.45,1516.53"/>
    </edge>
    <edge id=":436639252_19" function="internal">
        <lane id=":436639252_19_0" index="0" disallow="tram rail_urban rail rail_electric ship" speed="3.65" length="2.34" shape="273.27,1528.12 274.13,1528.34 275.17,1529.35"/>
    </edge>
    <edge id=":436639252_4" function="internal">
        <lane id=":436639252_4_0" index="0" disallow="tram rail_urban rail rail_electric ship" speed="6.43" length="9.03" shape="279.56,1522.83 277.20,1523.61 275.68,1524.96 275.00,1526.87 275.17,1529.35"/>
    </edge>
    <edge id=":436639252_5" function="internal">
        <lane id=":436639252_5_0" index="0" disallow="tram rail_urban rail rail_electric ship" speed="13.89" length="15.16" shape="279.56,1522.83 264.71,1525.68"/>
        <lane id=":436639252_5_1" index="1" disallow="tram rail_urban rail rail_electric ship" speed="13.89" length="15.16" shape="279.00,1519.68 264.07,1522.54"/>
    </edge>
    <edge id=":436639252_7" function="internal">
        <lane id=":436639252_7_0" index="0" disallow="tram rail_urban rail rail_electric ship" speed="9.27" length="5.33" shape="279.00,1519.68 274.98,1519.63 273.81,1519.05"/>
    </edge>
    <edge id=":436639252_8" function="internal">
        <lane id=":436639252_8_0" index="0" disallow="tram rail_urban rail rail_electric ship" speed="3.65" length="2.34" shape="279.00,1519.68 277.68,1519.10 277.15,1518.39"/>
    </edge>
    <edge id=":436639252_20" function="internal">
        <lane id=":436639252_20_0" index="0" disallow="tram rail_urban rail rail_electric ship" speed="9.27" length="12.23" shape="273.81,1519.05 271.59,1517.93 268.84,1514.59 266.73,1509.61"/>
    </edge>
    <edge id=":436639252_21" function="internal">
        <lane id=":436639252_21_0" index="0" disallow="tram rail_urban rail rail_electric ship" speed="3.65" length="2.34" shape="277.15,1518.39 277.40,1517.53 278.45,1516.53"/>
    </edge>
    <edge id=":436639252_9" function="internal">
        <lane id=":436639252_9_0" index="0" disallow="tram rail_urban rail rail_electric ship" speed="7.26" length="10.42" shape="269.79,1508.67 270.97,1511.15 272.71,1512.76 275.02,1513.50 277.89,1513.38"/>
    </edge>
    <edge id=":436639252_10" function="internal">
        <lane id=":436639252_10_0" index="0" disallow="tram rail_urban rail rail_electric ship" speed="13.89" length="21.38" shape="269.79,1508.67 271.10,1513.23 272.64,1518.97 274.10,1524.73 275.17,1529.35"/>
    </edge>
    <edge id=":436639252_11" function="internal">
        <lane id=":436639252_11_0" index="0" disallow="tram rail_urban rail rail_electric ship" speed="8.52" length="8.23" shape="269.79,1508.67 270.81,1514.01 270.40,1516.77"/>
    </edge>
    <edge id=":436639252_12" function="internal">
        <lane id=":436639252_12_0" index="0" disallow="tram rail_urban rail rail_electric ship" speed="3.65" length="2.34" shape="269.79,1508.67 269.38,1510.05 268.73,1510.67"/>
    </edge>
    <edge id=":436639252_22" function="internal">
        <lane id=":436639252_22_0" index="0" disallow="tram rail_urban rail rail_electric ship" speed="8.52" length="9.17" shape="270.40,1516.77 270.20,1518.11 267.95,1520.95 264.07,1522.54"/>
    </edge>
    <edge id=":436639252_23" function="internal">
        <lane id=":436639252_23_0" index="0" disallow="tram rail_urban rail rail_electric ship" speed="3.65" length="2.34" shape="268.73,1510.67 267.85,1510.52 266.73,1509.61"/>
    </edge>
    <edge id=":436639252_13" function="internal">
        <lane id=":436639252_13_0" index="0" disallow="tram rail_urban rail rail_electric ship" speed="6.31" length="9.04" shape="262.78,1516.27 265.14,1515.42 266.59,1514.03 267.12,1512.09 266.73,1509.61"/>
    </edge>
    <edge id=":436639252_14" function="internal">
        <lane id=":436639252_14_0" index="0" disallow="tram rail_urban rail rail_electric ship" speed="13.89" length="15.34" shape="262.78,1516.27 277.89,1513.38"/>
        <lane id=":436639252_14_1" index="1" disallow="tram rail_urban rail rail_electric ship" speed="13.89" length="15.34" shape="263.43,1519.41 278.45,1516.53"/>
    </edge>
    <edge id=":436639252_16" function="internal">
        <lane id=":436639252_16_0" index="0" disallow="tram rail_urban rail rail_electric ship" speed="8.83" length="17.44" shape="263.43,1519.41 267.62,1519.32 270.98,1520.95 273.49,1524.29 275.17,1529.35"/>
    </edge>
    <edge id=":436639252_17" function="internal">
        <lane id=":436639252_17_0" index="0" disallow="tram rail_urban rail rail_electric ship" speed="3.65" length="4.67" shape="263.43,1519.41 264.76,1519.95 265.31,1520.65 265.08,1521.52 264.07,1522.54"/>
    </edge>
    <edge id=":439237394_0" function="internal">
        <lane id=":439237394_0_0" index="0" disallow="tram rail_urban rail rail_electric ship" speed="8.79" length="10.77" shape="210.77,1641.24 207.70,1642.08 205.29,1643.36 203.54,1645.07 202.45,1647.21"/>
    </edge>
    <edge id=":439237394_1" function="internal">
        <lane id=":439237394_1_0" index="0" disallow="tram rail_urban rail rail_electric ship" speed="3.65" length="4.67" shape="210.77,1641.24 209.44,1640.67 208.90,1639.95 209.15,1639.09 210.19,1638.09"/>
    </edge>
    <edge id=":439237394_2" function="internal">
        <lane id=":439237394_2_0" index="0" disallow="tram rail_urban rail rail_electric ship" speed="6.14" length="9.06" shape="204.38,1633.24 204.73,1635.77 205.82,1637.42 207.63,1638.19 210.19,1638.09"/>
    </edge>
    <edge id=":439237394_3" function="internal">
        <lane id=":439237394_3_0" index="0" disallow="tram rail_urban rail rail_electric ship" speed="13.89" length="13.72" shape="204.38,1633.24 204.37,1637.45 204.21,1640.35 203.66,1643.19 202.45,1647.21"/>
        <lane id=":439237394_3_1" index="1" disallow="tram rail_urban rail rail_electric ship" speed="13.89" length="13.72" shape="201.18,1633.22 201.17,1637.14 201.04,1639.84 200.53,1642.48 199.40,1646.23"/>
    </edge>
    <edge id=":444114822_0" function="internal">
        <lane id=":444114822_0_0" index="0" disallow="tram rail_urban rail rail_electric ship" speed="3.65" length="4.67" shape="307.71,1936.68 306.92,1937.88 306.12,1938.29 305.32,1937.90 304.51,1936.70"/>
    </edge>
    <edge id=":444116371_0" function="internal">
        <lane id=":444116371_0_0" index="0" disallow="tram rail_urban rail rail_electric ship" speed="6.18" length="9.05" shape="246.91,1640.43 246.51,1637.92 245.39,1636.28 243.56,1635.51 241.02,1635.61"/>
    </edge>
    <edge id=":444116371_1" function="internal">
        <lane id=":444116371_1_0" index="0" disallow="tram rail_urban rail rail_electric ship" speed="8.75" length="14.45" shape="246.91,1640.43 247.33,1636.35 248.72,1633.18 251.10,1630.93 254.45,1629.59"/>
    </edge>
    <edge id=":444116371_2" function="internal">
        <lane id=":444116371_2_0" index="0" disallow="tram rail_urban rail rail_electric ship" speed="3.65" length="4.67" shape="246.91,1640.43 247.69,1639.22 248.49,1638.80 249.29,1639.19 250.11,1640.37"/>
    </edge>
    <edge id=":444116371_3" function="internal">
        <lane id=":444116371_3_0" index="0" disallow="tram rail_urban rail rail_electric ship" speed="7.38" length="10.04" shape="255.17,1632.71 252.91,1633.63 251.32,1635.22 250.39,1637.46 250.11,1640.37"/>
    </edge>
    <edge id=":444116371_4" function="internal">
        <lane id=":444116371_4_0" index="0" disallow="tram rail_urban rail rail_electric ship" speed="13.89" length="14.44" shape="255.17,1632.71 241.02,1635.61"/>
    </edge>
    <edge id=":444116371_5" function="internal">
        <lane id=":444116371_5_0" index="0" disallow="tram rail_urban rail rail_electric ship" speed="3.65" length="2.34" shape="255.17,1632.71 253.82,1632.20 253.25,1631.51"/>
    </edge>
    <edge id=":444116371_9" function="internal">
        <lane id=":444116371_9_0" index="0" disallow="tram rail_urban rail rail_electric ship" speed="3.65" length="2.34" shape="253.25,1631.51 253.46,1630.64 254.45,1629.59"/>
    </edge>
    <edge id=":444116371_6" function="internal">
        <lane id=":444116371_6_0" index="0" disallow="tram rail_urban rail rail_electric ship" speed="13.89" length="14.31" shape="240.44,1632.47 254.45,1629.59"/>
    </edge>
    <edge id=":444116371_7" function="internal">
        <lane id=":444116371_7_0" index="0" disallow="tram rail_urban rail rail_electric ship" speed="7.73" length="5.81" shape="240.44,1632.47 244.61,1632.30 246.12,1632.93"/>
    </edge>
    <edge id=":444116371_8" function="internal">
        <lane id=":444116371_8_0" index="0" disallow="tram rail_urban rail rail_electric ship" speed="3.65" length="2.34" shape="240.44,1632.47 241.76,1633.04 242.30,1633.75"/>
    </edge>
    <edge id=":444116371_10" function="internal">
        <lane id=":444116371_10_0" index="0" disallow="tram rail_urban rail rail_electric ship" speed="7.73" length="9.05" shape="246.12,1632.93 247.61,1633.56 249.45,1636.25 250.11,1640.37"/>
    </edge>
    <edge id=":444116371_11" function="internal">
        <lane id=":444116371_11_0" index="0" disallow="tram rail_urban rail rail_electric ship" speed="3.65" length="2.34" shape="242.30,1633.75 242.05,1634.61 241.02,1635.61"/>
    </edge>
    <edge id=":444116375_0" function="internal">
        <lane id=":444116375_0_0" index="0" disallow="tram rail_urban rail rail_electric ship" speed="3.65" length="4.67" shape="245.30,1880.45 244.62,1881.72 243.86,1882.19 243.03,1881.87 242.12,1880.75"/>
    </edge>
    <edge id=":5203745428_0" function="internal">
        <lane id=":5203745428_0_0" index="0" allow="bicycle" speed="2.04" length="1.46" width="1.00" shape="262.51,2060.64 262.33,2061.06 262.11,2061.22 261.84,2061.14 261.53,2060.82"/>
    </edge>
    <edge id=":5698107088_0" function="internal">
        <lane id=":5698107088_0_0" index="0" allow="bicycle" speed="8.33" length="14.54" width="1.00" shape="191.06,1414.98 190.96,1400.44"/>
    </edge>
    <edge id=":5698107088_1" function="internal">
        <lane id=":5698107088_1_0" index="0" allow="bicycle" speed="8.33" length="14.63" width="1.00" shape="191.06,1414.98 191.27,1411.31 191.81,1407.73 192.52,1404.17 193.21,1400.54"/>
    </edge>
    <edge id=":5698107088_2" function="internal">
        <lane id=":5698107088_2_0" index="0" allow="bicycle" speed="2.04" length="1.46" width="1.00" shape="191.06,1414.98 191.31,1414.60 191.56,1414.48 191.81,1414.60 192.06,1414.97"/>
    </edge>
    <edge id=":5698107088_3" function="internal">
        <lane id=":5698107088_3_0" index="0" allow="bicycle" speed="8.33" length="14.45" width="1.00" shape="194.20,1400.70 193.51,1404.31 192.80,1407.81 192.26,1411.33 192.06,1414.97"/>
    </edge>
    <edge id=":5698107088_4" function="internal">
        <lane id=":5698107088_4_0" index="0" allow="bicycle" speed="6.32" length="18.98" width="1.00" shape="194.20,1400.70 192.83,1407.59 191.83,1409.85 191.21,1407.46 190.96,1400.44"/>
    </edge>
    <edge id=":5698107088_5" function="internal">
        <lane id=":5698107088_5_0" index="0" allow="bicycle" speed="2.04" length="1.46" width="1.00" shape="194.20,1400.70 193.89,1401.03 193.62,1401.11 193.39,1400.95 193.21,1400.54"/>
    </edge>
    <edge id=":5698107088_6" function="internal">
        <lane id=":5698107088_6_0" index="0" allow="bicycle" speed="4.04" length="7.34" width="1.00" shape="191.96,1400.44 192.06,1403.15 192.30,1404.07 192.68,1403.20 193.21,1400.54"/>
    </edge>
    <edge id=":5698107088_7" function="internal">
        <lane id=":5698107088_7_0" index="0" allow="bicycle" speed="8.33" length="14.54" width="1.00" shape="191.96,1400.44 192.06,1414.97"/>
    </edge>
    <edge id=":5698107088_8" function="internal">
        <lane id=":5698107088_8_0" index="0" allow="bicycle" speed="2.04" length="1.46" width="1.00" shape="191.96,1400.44 191.71,1400.81 191.46,1400.94 191.21,1400.82 190.96,1400.44"/>
    </edge>
    <edge id=":6100838057_0" function="internal">
        <lane id=":6100838057_0_0" index="0" disallow="tram rail_urban rail rail_electric ship" speed="3.65" length="4.67" shape="457.27,1586.42 458.58,1587.02 459.10,1587.75 458.83,1588.61 457.77,1589.58"/>
    </edge>
    <edge id=":6476202714_0" function="internal">
        <lane id=":6476202714_0_0" index="0" allow="bicycle" speed="2.04" length="1.46" width="1.00" shape="668.41,-0.11 668.74,-0.42 669.01,-0.49 669.22,-0.31 669.39,0.11"/>
    </edge>
    <edge id=":914590028_0" function="internal">