<routes>

<vType id="carro"  sigma="0.5" vClass="passenger"   guiShape="passenger"   color="192, 192, 192" />
<vType id="carro1" sigma="0.5" vClass="passenger"   guiShape="passenger"   color="255, 255, 255" />
<vType id="carro2" sigma="0.5" vClass="passenger"   guiShape="passenger"   color="0, 0, 139" />
<vType id="carro3" sigma="0.5" vClass="passenger"   guiShape="passenger"   color="128, 0, 0" />
<vType id="taxi"   sigma="0.5" vClass="passenger"   guiShape="passenger"   color="255, 255, 0"/>
<vType id="bus"    sigma="0.5" vClass="bus"         guiShape="bus"         color="255, 0, 0"/>
<vType id="bici"   sigma="0.5" vClass="bicycle"   	guiShape="bicycle"     color="255, 255, 255" />
<vType id="moto"   sigma="0.5" vClass="motorcycle"  guiShape="motorcycle"  color="255, 255, 255"/>
<vType id="camion" sigma="0.5" vClass="delivery"    guiShape="delivery"    color="255, 255, 255"/>





<vType id="trailer" sigma="0.5" vClass="trailer" guiShape="truck/trailer"/>






----------------Rutas Buses ------------

<route id="route1" edges="orillas1 orillas2"/>

<route id="route2" edges="nueval1 nueval2"/>

<route id="route3" edges="guaya5 nueval2"/>

<route id="route4" edges="orillas1 guaya3 guaya4"/>

<route id="route5" edges=" guaya1 guaya2 guaya3 nueval2"/>


<flow id="pitas-rosal" begin="0" end= "5400" period="100" route="route1" type="bus"  />
<flow id="pitas-rosal1" begin="0" end= "5400" period="100" route="route2" type="bus"/>

<flow id="borja-isidro" begin="0" end= "5400" period="150" route="route3" type="bus"/>

<flow id="paraiso-sol" begin="0" end= "5400" period="160" route="route5" type="bus"/>

<flow id="sauces-julio" begin="0" end= "5400" period="170" route="route4" type="bus"/>

<flow id="colinas-lojanas1" begin="240" end= "5400" period="180" route="route2" type="bus"/>

<flow id="sauces-julio1" begin="300" end= "5400" period="170" route="route2" type="bus"/>

<flow id="colinas-lojanas" begin="300" end= "5400" period="180" route="route1" type="bus"/>

<flow id="motupe-punzara" begin="300" end= "5400" period="200" route="route3" type="bus"/>




------------------------------------RUTAS AUTOS-----------------------------------

							   -----Entrada Iglesia-Zona-------- 
<route id="route6" edges=" guaya1 guaya2 guaya3 guaya4"/>
<route id="route7" edges=" guaya1 cuenca2"/>
<route id="route8" edges=" guaya1 cuenca4 cuenca6"/>
<route id="route9" edges=" guaya1 guaya2 orillas2"/>
<route id="route10" edges=" guaya1 guaya2 orillas3 orillas4"/>
<route id="route11" edges=" guaya1 guaya2 guaya3 nueval2"/>





							   -----Entrada Zona-Iglesia-------- 

<route id="route12" edges=" guaya5 guaya6 guaya7 guaya8"/>
<route id="route13" edges=" guaya5 nueval2"/>
<route id="route14" edges=" guaya5 guaya6 orillas3 orillas4"/>
<route id="route15" edges=" guaya5 guaya6 orillas2"/>
<route id="route16" edges=" guaya5 guaya6 guaya7 cuenca2"/>
<route id="route17" edges=" guaya5 guaya6 guaya7 cuenca4 cuenca6"/>





							   -----Entrada Nueva Loja-------- 
								
<route id="route18" edges=" nueval1 guaya6 guaya7 guaya8"/>
<route id="route19" edges=" nueval1 guaya4"/>
<route id="route20" edges=" nueval1 nueval2"/>
<route id="route21" edges=" nueval1 guaya6 orillas2"/>
<route id="route22" edges=" nueval1 guaya6 orillas3 orillas4"/>
<route id="route23" edges=" nueval1 guaya6 guaya7 cuenca2"/>
<route id="route24" edges=" nueval1 guaya6 guaya7 cuenca4 cuenca6"/>




							   -----Entrada Orillas Zamora-------- 
							   
<route id="route25" edges=" orillas5 orillas1 orillas2"/>
<route id="route26" edges=" orillas5 orillas1 guaya7 guaya8"/>
<route id="route27" edges=" orillas5 orillas1 guaya7 cuenca2"/>
<route id="route28" edges=" orillas5 orillas1 guaya7 cuenca4 cuenca6"/>
<route id="route29" edges=" orillas5 orillas1 guaya3 nueval2"/>
<route id="route30" edges=" orillas5 orillas1 guaya3 guaya4"/>




<flow id="auto1" begin="400" end= "5400" period="100" route="route6" type="carro" />
<flow id="auto2" begin="400" end= "5400" period="100" route="route12" type="carro1" />
<flow id="auto3" begin="400" end= "5400" period="100" route="route18" type="carro2"  />
<flow id="auto20" begin="400" end= "5400" period="100" route="route25" type="camion" />


<flow id="auto4" begin="500" end= "5400" period="100" route="route7" type="taxi"/>
<flow id="auto5" begin="500" end= "5400" period="100" route="route13" type="carro3"/>
<flow id="auto6" begin="500" end= "5400" period="100" route="route19" type="taxi"/>
<flow id="auto21" begin="500" end= "5400" period="100" route="route26" type="carro"/>


<flow id="auto7" begin="600" end= "5400" period="100" route="route8" type="carro1"/>
<flow id="auto8" begin="600" end= "5400" period="100" route="route14" type="camion"/>
<flow id="auto9" begin="600" end= "5400" period="100" route="route20" type="carro2"/>
<flow id="auto22" begin="600" end= "5400" period="100" route="route27" type="carro3"/>


<flow id="auto10" begin="700" end= "5400" period="100" route="route9" type="taxi"/>
<flow id="auto11" begin="700" end= "5400" period="100" route="route15" type="moto"/>
<flow id="auto12" begin="700" end= "5400" period="100" route="route21" type="carro2"/>
<flow id="auto23" begin="700" end= "5400" period="100" route="route28" type="carro"/>


<flow id="auto13" begin="800" end= "5400" period="100" route="route10" type="carro"/>
<flow id="auto14" begin="800" end= "5400" period="100" route="route16" type="taxi"/>
<flow id="auto15" begin="800" end= "5400" period="100" route="route22" type="carro"/>
<flow id="auto24" begin="800" end= "5400" period="100" route="route29" type="moto"/>

<flow id="auto16" begin="900" end= "5400" period="100" route="route11" type="carro"/>
<flow id="auto17" begin="900" end= "5400" period="100" route="route17" type="camion"/>
<flow id="auto18" begin="900" end= "5400" period="100" route="route23" type="carro"/>
<flow id="auto25" begin="900" end= "5400" period="100" route="route30" type="carro2"/>

<flow id="auto19" begin="1000" end= "5400" period="100" route="route24" type="carro3"/>



----------- RUTAS BICICLETAS-------------------------















</routes>

