<?xml version="1.0" encoding="UTF-8"?>

<!-- generated on 08/28/19 20:45:36 by Eclipse SUMO netedit Version 1.2.0
<configuration xmlns:xsi="http://www.w3.org/2001/XMLSchema-instance" xsi:noNamespaceSchemaLocation="http://sumo.dlr.de/xsd/netconvertConfiguration.xsd">

    <input>
        <sumo-net-file value="C:\Users\Dell\Desktop\Hipervalle\JuevesM\Hipervalle.net.xml"/>
    </input>

    <output>
        <output-file value="C:\Users\Dell\Desktop\Hipervalle\JuevesM\Hipervalle.net.xml"/>
    </output>

    <processing>
        <geometry.max-grade.fix value="false"/>
        <offset.disable-normalization value="true"/>
        <lefthand value="false"/>
    </processing>

    <junctions>
        <no-turnarounds value="true"/>
        <junctions.corner-detail value="5"/>
        <junctions.limit-turn-speed value="5.5"/>
        <rectangular-lane-cut value="false"/>
    </junctions>

    <pedestrian>
        <walkingareas value="false"/>
    </pedestrian>

</configuration>
-->

<net version="1.1" junctionCornerDetail="5" limitTurnSpeed="5.50" xmlns:xsi="http://www.w3.org/2001/XMLSchema-instance" xsi:noNamespaceSchemaLocation="http://sumo.dlr.de/xsd/net_file.xsd">

    <location netOffset="-699227.66,441811.00" convBoundary="133.52,0.00,802.43,2088.07" origBoundary="-79.205579,-3.995155,-79.198326,-3.975264" projParameter="+proj=utm +zone=17 +ellps=WGS84 +datum=WGS84 +units=m +no_defs"/>

    <type id="highway.bridleway" priority="1" numLanes="1" speed="2.78" allow="pedestrian" oneway="1" width="2.00"/>
    <type id="highway.bus_guideway" priority="1" numLanes="1" speed="27.78" allow="bus" oneway="1"/>
    <type id="highway.cycleway" priority="1" numLanes="1" speed="8.33" allow="bicycle" oneway="0" width="1.00"/>
    <type id="highway.footway" priority="1" numLanes="1" speed="2.78" allow="pedestrian" oneway="1" width="2.00"/>
    <type id="highway.ford" priority="1" numLanes="1" speed="2.78" allow="army" oneway="0"/>
    <type id="highway.living_street" priority="2" numLanes="1" speed="2.78" disallow="tram rail_urban rail rail_electric ship" oneway="0"/>
    <type id="highway.motorway" priority="14" numLanes="2" speed="39.44" allow="private emergency authority army vip passenger hov taxi bus coach delivery truck trailer motorcycle evehicle custom1 custom2" oneway="1"/>
    <type id="highway.motorway_link" priority="9" numLanes="1" speed="22.22" allow="private emergency authority army vip passenger hov taxi bus coach delivery truck trailer motorcycle evehicle custom1 custom2" oneway="1"/>
    <type id="highway.path" priority="1" numLanes="1" speed="2.78" allow="bicycle pedestrian" oneway="1" width="2.00"/>
    <type id="highway.pedestrian" priority="1" numLanes="1" speed="2.78" allow="pedestrian" oneway="1" width="2.00"/>
    <type id="highway.primary" priority="12" numLanes="2" speed="27.78" disallow="tram rail_urban rail rail_electric ship" oneway="0"/>
    <type id="highway.primary_link" priority="7" numLanes="1" speed="22.22" disallow="tram rail_urban rail rail_electric ship" oneway="0"/>
    <type id="highway.raceway" priority="15" numLanes="2" speed="83.33" allow="vip" oneway="0"/>
    <type id="highway.residential" priority="3" numLanes="1" speed="13.89" disallow="tram rail_urban rail rail_electric ship" oneway="0"/>
    <type id="highway.secondary" priority="11" numLanes="2" speed="27.78" disallow="tram rail_urban rail rail_electric ship" oneway="0"/>
    <type id="highway.secondary_link" priority="6" numLanes="1" speed="22.22" disallow="tram rail_urban rail rail_electric ship" oneway="0"/>
    <type id="highway.service" priority="1" numLanes="1" speed="5.56" allow="delivery bicycle pedestrian" oneway="0"/>
    <type id="highway.stairs" priority="1" numLanes="1" speed="1.39" allow="pedestrian" oneway="1" width="2.00"/>
    <type id="highway.step" priority="1" numLanes="1" speed="1.39" allow="pedestrian" oneway="1" width="2.00"/>
    <type id="highway.steps" priority="1" numLanes="1" speed="1.39" allow="pedestrian" oneway="1" width="2.00"/>
    <type id="highway.tertiary" priority="10" numLanes="1" speed="22.22" disallow="tram rail_urban rail rail_electric ship" oneway="0"/>
    <type id="highway.tertiary_link" priority="5" numLanes="1" speed="22.22" disallow="tram rail_urban rail rail_electric ship" oneway="0"/>
    <type id="highway.track" priority="1" numLanes="1" speed="5.56" disallow="tram rail_urban rail rail_electric ship" oneway="0"/>
    <type id="highway.trunk" priority="13" numLanes="2" speed="27.78" disallow="tram rail_urban rail rail_electric bicycle pedestrian ship" oneway="0"/>
    <type id="highway.trunk_link" priority="8" numLanes="1" speed="22.22" disallow="tram rail_urban rail rail_electric bicycle pedestrian ship" oneway="0"/>
    <type id="highway.unclassified" priority="4" numLanes="1" speed="13.89" disallow="tram rail_urban rail rail_electric ship" oneway="0"/>
    <type id="highway.unsurfaced" priority="1" numLanes="1" speed="8.33" disallow="tram rail_urban rail rail_electric ship" oneway="0"/>
    <type id="railway.light_rail" priority="19" numLanes="1" speed="27.78" allow="rail_urban" oneway="1"/>
    <type id="railway.preserved" priority="16" numLanes="1" speed="27.78" allow="rail" oneway="1"/>
    <type id="railway.rail" priority="20" numLanes="1" speed="83.33" allow="rail rail_electric" oneway="1"/>
    <type id="railway.subway" priority="18" numLanes="1" speed="27.78" allow="rail_urban" oneway="1"/>
    <type id="railway.tram" priority="17" numLanes="1" speed="13.89" allow="tram" oneway="1"/>

    <edge id=":1431442689_0" function="internal">
        <lane id=":1431442689_0_0" index="0" disallow="tram rail_urban rail rail_electric ship" speed="13.89" length="0.18" shape="398.29,1481.52 398.32,1481.60"/>
        <lane id=":1431442689_0_1" index="1" disallow="tram rail_urban rail rail_electric ship" speed="13.89" length="0.18" shape="395.19,1482.29 395.26,1482.54"/>
    </edge>
    <edge id=":367906596_0" function="internal">
        <lane id=":367906596_0_0" index="0" disallow="tram rail_urban rail rail_electric ship" speed="3.65" length="4.67" shape="133.76,1569.49 132.46,1568.88 131.94,1568.15 132.21,1567.30 133.28,1566.33"/>
    </edge>
    <edge id=":367910458_0" function="internal">
        <lane id=":367910458_0_0" index="0" disallow="tram rail_urban rail rail_electric ship" speed="3.65" length="4.67" shape="450.55,1509.70 451.87,1510.28 452.41,1511.00 452.15,1511.86 451.11,1512.86"/>
    </edge>
    <edge id=":367910670_0" function="internal">
        <lane id=":367910670_0_0" index="0" disallow="tram rail_urban rail rail_electric ship" speed="6.27" length="9.04" shape="293.06,1552.02 292.66,1549.53 291.56,1547.86 289.75,1547.01 287.23,1546.97"/>
    </edge>
    <edge id=":367910670_1" function="internal">
        <lane id=":367910670_1_0" index="0" disallow="tram rail_urban rail rail_electric ship" speed="7.11" length="11.94" shape="293.06,1552.02 292.62,1548.13 291.43,1545.46 289.50,1544.02 286.82,1543.80"/>
    </edge>
    <edge id=":367910670_2" function="internal">
        <lane id=":367910670_2_0" index="0" disallow="tram rail_urban rail rail_electric ship" speed="20.84" length="21.87" shape="293.06,1552.02 292.81,1530.14"/>
        <lane id=":367910670_2_1" index="1" disallow="tram rail_urban rail rail_electric ship" speed="20.84" length="21.87" shape="296.26,1551.97 296.01,1530.11"/>
    </edge>
    <edge id=":367910670_4" function="internal">
        <lane id=":367910670_4_0" index="0" disallow="tram rail_urban rail rail_electric ship" speed="9.81" length="19.05" shape="296.26,1551.97 296.52,1544.93 297.54,1539.74 299.32,1536.41 301.87,1534.94"/>
    </edge>
    <edge id=":367910670_5" function="internal">
        <lane id=":367910670_5_0" index="0" disallow="tram rail_urban rail rail_electric ship" speed="9.15" length="16.43" shape="296.26,1551.97 296.57,1546.34 297.71,1542.15 299.67,1539.40 302.45,1538.09"/>
    </edge>
    <edge id=":367910670_6" function="internal">
        <lane id=":367910670_6_0" index="0" disallow="tram rail_urban rail rail_electric ship" speed="13.89" length="16.50" shape="303.61,1544.38 287.23,1546.97"/>
        <lane id=":367910670_6_1" index="1" disallow="tram rail_urban rail rail_electric ship" speed="13.89" length="16.50" shape="303.03,1541.24 286.82,1543.80"/>
    </edge>
    <edge id=":367910670_8" function="internal">
        <lane id=":367910670_8_0" index="0" disallow="tram rail_urban rail rail_electric ship" speed="8.41" length="17.88" shape="303.03,1541.24 298.60,1541.25 295.42,1539.40 293.49,1535.70 292.81,1530.14"/>
    </edge>
    <edge id=":367910670_9" function="internal">
        <lane id=":367910670_9_0" index="0" disallow="tram rail_urban rail rail_electric ship" speed="7.79" length="15.19" shape="303.03,1541.24 300.00,1541.02 297.82,1539.10 296.49,1535.46 296.01,1530.11"/>
    </edge>
    <edge id=":367910670_10" function="internal">
        <lane id=":367910670_10_0" index="0" disallow="tram rail_urban rail rail_electric ship" speed="7.47" length="11.11" shape="286.00,1537.45 289.00,1536.66 291.13,1535.18 292.40,1533.00 292.81,1530.14"/>
    </edge>
    <edge id=":367910670_11" function="internal">
        <lane id=":367910670_11_0" index="0" disallow="tram rail_urban rail rail_electric ship" speed="8.21" length="13.62" shape="286.00,1537.45 290.39,1536.50 293.53,1534.97 295.40,1532.83 296.01,1530.11"/>
    </edge>
    <edge id=":367910670_12" function="internal">
        <lane id=":367910670_12_0" index="0" disallow="tram rail_urban rail rail_electric ship" speed="13.89" length="16.15" shape="286.00,1537.45 301.87,1534.94"/>
        <lane id=":367910670_12_1" index="1" disallow="tram rail_urban rail rail_electric ship" speed="13.89" length="16.15" shape="286.41,1540.62 302.45,1538.09"/>
    </edge>
    <edge id=":436639252_0" function="internal">
        <lane id=":436639252_0_0" index="0" disallow="tram rail_urban rail rail_electric ship" speed="6.43" length="9.03" shape="416.24,1522.28 413.88,1523.05 412.36,1524.40 411.68,1526.31 411.85,1528.79"/>
    </edge>
    <edge id=":436639252_1" function="internal">
        <lane id=":436639252_1_0" index="0" disallow="tram rail_urban rail rail_electric ship" speed="7.26" length="11.79" shape="416.24,1522.28 412.50,1523.30 410.00,1524.84 408.74,1526.89 408.72,1529.46"/>
    </edge>
    <edge id=":436639252_2" function="internal">
        <lane id=":436639252_2_0" index="0" disallow="tram rail_urban rail rail_electric ship" speed="13.89" length="15.15" shape="416.24,1522.28 401.39,1525.03"/>
        <lane id=":436639252_2_1" index="1" disallow="tram rail_urban rail rail_electric ship" speed="13.89" length="15.15" shape="415.69,1519.12 400.75,1521.90"/>
    </edge>
    <edge id=":436639252_4" function="internal">
        <lane id=":436639252_4_0" index="0" disallow="tram rail_urban rail rail_electric ship" speed="7.28" length="10.48" shape="406.46,1508.02 407.65,1510.54 409.40,1512.18 411.71,1512.94 414.57,1512.82"/>
    </edge>
    <edge id=":436639252_5" function="internal">
        <lane id=":436639252_5_0" index="0" disallow="tram rail_urban rail rail_electric ship" speed="8.03" length="12.94" shape="406.46,1508.02 408.05,1511.89 410.02,1514.51 412.38,1515.87 415.13,1515.97"/>
    </edge>
    <edge id=":436639252_6" function="internal">
        <lane id=":436639252_6_0" index="0" disallow="tram rail_urban rail rail_electric ship" speed="13.89" length="21.33" shape="406.46,1508.02 408.26,1513.92 409.48,1518.32 410.55,1522.76 411.85,1528.79"/>
        <lane id=":436639252_6_1" index="1" disallow="tram rail_urban rail rail_electric ship" speed="13.89" length="21.33" shape="403.41,1508.96 405.19,1514.82 406.39,1519.12 407.43,1523.47 408.72,1529.46"/>
    </edge>
    <edge id=":436639252_8" function="internal">
        <lane id=":436639252_8_0" index="0" disallow="tram rail_urban rail rail_electric ship" speed="8.64" length="17.96" shape="403.41,1508.96 404.98,1515.49 405.17,1520.34 403.97,1523.52 401.39,1525.03"/>
    </edge>
    <edge id=":436639252_9" function="internal">
        <lane id=":436639252_9_0" index="0" disallow="tram rail_urban rail rail_electric ship" speed="7.92" length="14.90" shape="403.41,1508.96 404.59,1514.14 404.54,1518.02 403.26,1520.61 400.75,1521.90"/>
    </edge>
    <edge id=":436639252_10" function="internal">
        <lane id=":436639252_10_0" index="0" disallow="tram rail_urban rail rail_electric ship" speed="13.89" length="15.33" shape="399.46,1515.63 414.57,1512.82"/>
        <lane id=":436639252_10_1" index="1" disallow="tram rail_urban rail rail_electric ship" speed="13.89" length="15.33" shape="400.10,1518.76 415.13,1515.97"/>
    </edge>
    <edge id=":436639252_12" function="internal">
        <lane id=":436639252_12_0" index="0" disallow="tram rail_urban rail rail_electric ship" speed="8.85" length="5.73" shape="400.10,1518.76 404.29,1518.68 405.67,1519.36"/>
    </edge>
    <edge id=":436639252_13" function="internal">
        <lane id=":436639252_13_0" index="0" disallow="tram rail_urban rail rail_electric ship" speed="8.28" length="4.01" shape="400.10,1518.76 402.92,1518.96 403.86,1519.69"/>
    </edge>
    <edge id=":436639252_14" function="internal">
        <lane id=":436639252_14_0" index="0" disallow="tram rail_urban rail rail_electric ship" speed="8.85" length="11.78" shape="405.67,1519.36 407.65,1520.32 410.17,1523.69 411.85,1528.79"/>
    </edge>
    <edge id=":436639252_15" function="internal">
        <lane id=":436639252_15_0" index="0" disallow="tram rail_urban rail rail_electric ship" speed="8.28" length="11.18" shape="403.86,1519.69 405.30,1520.81 407.23,1524.31 408.72,1529.46"/>
    </edge>
    <edge id=":462749688_0" function="internal">
        <lane id=":462749688_0_0" index="0" disallow="tram rail_urban rail rail_electric ship" speed="6.11" length="9.06" shape="243.32,1559.05 242.96,1556.51 241.86,1554.87 240.04,1554.13 237.48,1554.29"/>
    </edge>
    <edge id=":462749688_1" function="internal">
        <lane id=":462749688_1_0" index="0" disallow="tram rail_urban rail rail_electric ship" speed="13.89" length="23.13" shape="243.32,1559.05 243.83,1552.66 244.97,1547.62 246.15,1542.57 246.78,1536.19"/>
        <lane id=":462749688_1_1" index="1" disallow="tram rail_urban rail rail_electric ship" speed="13.89" length="23.13" shape="246.52,1559.05 247.03,1552.68 248.17,1547.66 249.35,1542.64 249.98,1536.27"/>
    </edge>
    <edge id=":462749688_3" function="internal">
        <lane id=":462749688_3_0" index="0" disallow="tram rail_urban rail rail_electric ship" speed="9.69" length="19.18" shape="246.52,1559.05 247.12,1553.17 248.91,1548.79 251.90,1545.92 256.07,1544.55"/>
    </edge>
    <edge id=":462749688_4" function="internal">
        <lane id=":462749688_4_0" index="0" disallow="tram rail_urban rail rail_electric ship" speed="13.89" length="19.82" shape="256.89,1550.90 237.48,1554.29"/>
        <lane id=":462749688_4_1" index="1" disallow="tram rail_urban rail rail_electric ship" speed="13.89" length="19.82" shape="256.48,1547.72 236.84,1551.15"/>
    </edge>
    <edge id=":462749688_6" function="internal">
        <lane id=":462749688_6_0" index="0" disallow="tram rail_urban rail rail_electric ship" speed="7.83" length="3.85" shape="256.48,1547.72 253.53,1547.34 252.91,1546.72"/>
    </edge>
    <edge id=":462749688_7" function="internal">
        <lane id=":462749688_7_0" index="0" disallow="tram rail_urban rail rail_electric ship" speed="3.65" length="2.34" shape="256.48,1547.72 255.19,1547.08 254.69,1546.34"/>
    </edge>
    <edge id=":462749688_12" function="internal">
        <lane id=":462749688_12_0" index="0" disallow="tram rail_urban rail rail_electric ship" speed="7.83" length="11.26" shape="252.91,1546.72 251.47,1545.30 250.28,1541.61 249.98,1536.27"/>
    </edge>
    <edge id=":462749688_13" function="internal">
        <lane id=":462749688_13_0" index="0" disallow="tram rail_urban rail rail_electric ship" speed="3.65" length="2.34" shape="254.69,1546.34 254.98,1545.50 256.07,1544.55"/>
    </edge>
    <edge id=":462749688_8" function="internal">
        <lane id=":462749688_8_0" index="0" disallow="tram rail_urban rail rail_electric ship" speed="9.07" length="15.31" shape="235.54,1544.88 240.41,1543.48 243.90,1541.57 246.03,1539.14 246.78,1536.19"/>
    </edge>
    <edge id=":462749688_9" function="internal">
        <lane id=":462749688_9_0" index="0" disallow="tram rail_urban rail rail_electric ship" speed="13.89" length="20.30" shape="235.54,1544.88 255.66,1541.38"/>
        <lane id=":462749688_9_1" index="1" disallow="tram rail_urban rail rail_electric ship" speed="13.89" length="20.30" shape="236.19,1548.02 256.07,1544.55"/>
    </edge>
    <edge id=":462749688_11" function="internal">
        <lane id=":462749688_11_0" index="0" disallow="tram rail_urban rail rail_electric ship" speed="3.65" length="2.34" shape="236.19,1548.02 237.53,1548.56 238.08,1549.26"/>
    </edge>
    <edge id=":462749688_14" function="internal">
        <lane id=":462749688_14_0" index="0" disallow="tram rail_urban rail rail_electric ship" speed="3.65" length="2.34" shape="238.08,1549.26 237.85,1550.13 236.84,1551.15"/>
    </edge>
    <edge id=":5698107088_0" function="internal">
        <lane id=":5698107088_0_0" index="0" allow="bicycle" speed="8.33" length="0.10" width="1.00" shape="324.57,1413.39 324.58,1413.31"/>
    </edge>
    <edge id=":5698107088_1" function="internal">
        <lane id=":5698107088_1_0" index="0" allow="bicycle" speed="2.04" length="1.46" width="1.00" shape="324.57,1413.39 324.82,1413.02 325.07,1412.89 325.32,1413.02 325.57,1413.39"/>
    </edge>
    <edge id=":5698107088_2" function="internal">
        <lane id=":5698107088_2_0" index="0" allow="bicycle" speed="8.33" length="0.10" width="1.00" shape="325.56,1413.47 325.57,1413.39"/>
    </edge>
    <edge id=":5698107088_3" function="internal">
        <lane id=":5698107088_3_0" index="0" allow="bicycle" speed="2.04" length="1.46" width="1.00" shape="325.56,1413.47 325.25,1413.80 324.99,1413.88 324.76,1413.72 324.58,1413.31"/>
    </edge>
    <edge id=":cluster_1431442700_5399833311_0" function="internal">
        <lane id=":cluster_1431442700_5399833311_0_0" index="0" disallow="tram rail_urban rail rail_electric ship" speed="8.02" length="11.65" shape="352.11,1396.07 348.78,1397.19 346.39,1398.82 344.95,1400.95 344.44,1403.57"/>
    </edge>
    <edge id=":cluster_1431442700_5399833311_1" function="internal">
        <lane id=":cluster_1431442700_5399833311_1_0" index="0" disallow="tram rail_urban rail rail_electric ship" speed="9.36" length="25.86" shape="352.11,1396.07 344.32,1397.16 338.20,1396.20 334.55,1392.65 334.15,1385.95"/>
    </edge>
    <edge id=":cluster_1431442700_5399833311_2" function="internal">
        <lane id=":cluster_1431442700_5399833311_2_0" index="0" disallow="tram rail_urban rail rail_electric ship" speed="5.75" length="9.12" shape="346.41,1388.10 346.20,1390.77 346.97,1392.47 348.69,1393.20 351.39,1392.95"/>
    </edge>
    <edge id=":cluster_1431442700_5399833311_3" function="internal">
        <lane id=":cluster_1431442700_5399833311_3_0" index="0" disallow="tram rail_urban rail rail_electric ship" speed="13.89" length="15.90" shape="346.41,1388.10 345.41,1392.64 344.84,1395.77 344.56,1398.94 344.44,1403.57"/>
        <lane id=":cluster_1431442700_5399833311_3_1" index="1" disallow="tram rail_urban rail rail_electric ship" speed="13.89" length="15.90" shape="343.26,1387.55 342.23,1392.23 341.64,1395.47 341.36,1398.74 341.24,1403.53"/>
    </edge>
    <edge id=":cluster_1431442700_5399833311_5" function="internal">
        <lane id=":cluster_1431442700_5399833311_5_0" index="0" disallow="tram rail_urban rail rail_electric ship" speed="5.53" length="10.69" shape="343.26,1387.55 340.38,1390.57 337.90,1391.30 335.82,1389.77 335.28,1388.53"/>
    </edge>
    <edge id=":cluster_1431442700_5399833311_10" function="internal">
        <lane id=":cluster_1431442700_5399833311_10_0" index="0" disallow="tram rail_urban rail rail_electric ship" speed="5.53" length="2.82" shape="335.28,1388.53 334.15,1385.95"/>
    </edge>
    <edge id=":cluster_1431442700_5399833311_6" function="internal">
        <lane id=":cluster_1431442700_5399833311_6_0" index="0" disallow="tram rail_urban rail rail_electric ship" speed="13.89" length="17.93" shape="328.36,1403.36 328.72,1397.99 329.24,1394.33 329.98,1390.70 330.99,1385.40"/>
        <lane id=":cluster_1431442700_5399833311_6_1" index="1" disallow="tram rail_urban rail rail_electric ship" speed="13.89" length="17.93" shape="331.57,1403.41 331.91,1398.18 332.43,1394.63 333.15,1391.10 334.15,1385.95"/>
    </edge>
    <edge id=":cluster_1431442700_5399833311_8" function="internal">
        <lane id=":cluster_1431442700_5399833311_8_0" index="0" disallow="tram rail_urban rail rail_electric ship" speed="11.31" length="11.37" shape="331.57,1403.41 332.90,1400.52 336.65,1397.82 339.95,1396.47"/>
    </edge>
    <edge id=":cluster_1431442700_5399833311_9" function="internal">
        <lane id=":cluster_1431442700_5399833311_9_0" index="0" disallow="tram rail_urban rail rail_electric ship" speed="5.63" length="11.29" shape="331.57,1403.41 334.03,1399.81 336.47,1398.63 338.87,1399.87 339.70,1401.15"/>
    </edge>
    <edge id=":cluster_1431442700_5399833311_11" function="internal">
        <lane id=":cluster_1431442700_5399833311_11_0" index="0" disallow="tram rail_urban rail rail_electric ship" speed="11.31" length="11.99" shape="339.95,1396.47 342.81,1395.29 351.39,1392.95"/>
    </edge>
    <edge id=":cluster_1431442700_5399833311_12" function="internal">
        <lane id=":cluster_1431442700_5399833311_12_0" index="0" disallow="tram rail_urban rail rail_electric ship" speed="5.63" length="2.84" shape="339.70,1401.15 341.24,1403.53"/>
    </edge>
    <edge id=":cluster_1620413256_1620724991_2986448412_367910492_0" function="internal">
        <lane id=":cluster_1620413256_1620724991_2986448412_367910492_0_0" index="0" disallow="tram rail_urban rail rail_electric ship" speed="9.63" length="17.68" shape="350.63,1535.46 345.28,1537.07 341.46,1539.39 339.15,1542.42 338.37,1546.16"/>
    </edge>
    <edge id=":cluster_1620413256_1620724991_2986448412_367910492_1" function="internal">
        <lane id=":cluster_1620413256_1620724991_2986448412_367910492_1_0" index="0" disallow="tram rail_urban rail rail_electric ship" speed="10.25" length="20.14" shape="350.63,1535.46 343.88,1537.31 339.06,1539.71 336.15,1542.65 335.17,1546.14"/>
    </edge>
    <edge id=":cluster_1620413256_1620724991_2986448412_367910492_2" function="internal">
        <lane id=":cluster_1620413256_1620724991_2986448412_367910492_2_0" index="0" disallow="tram rail_urban rail rail_electric ship" speed="13.89" length="30.58" shape="350.63,1535.46 320.57,1541.24"/>
        <lane id=":cluster_1620413256_1620724991_2986448412_367910492_2_1" index="1" disallow="tram rail_urban rail rail_electric ship" speed="13.89" length="30.58" shape="349.98,1532.32 319.99,1538.10"/>
    </edge>
    <edge id=":cluster_1620413256_1620724991_2986448412_367910492_4" function="internal">
        <lane id=":cluster_1620413256_1620724991_2986448412_367910492_4_0" index="0" disallow="tram rail_urban rail rail_electric ship" speed="10.46" length="28.44" shape="349.98,1532.32 341.37,1533.50 334.87,1532.57 330.72,1528.79 329.15,1521.39"/>
    </edge>
    <edge id=":cluster_1620413256_1620724991_2986448412_367910492_5" function="internal">
        <lane id=":cluster_1620413256_1620724991_2986448412_367910492_5_0" index="0" disallow="tram rail_urban rail rail_electric ship" speed="9.78" length="24.68" shape="349.98,1532.32 342.39,1532.97 336.92,1531.36 333.58,1527.49 332.35,1521.37"/>
    </edge>
    <edge id=":cluster_1620413256_1620724991_2986448412_367910492_6" function="internal">
        <lane id=":cluster_1620413256_1620724991_2986448412_367910492_6_0" index="0" disallow="tram rail_urban rail rail_electric ship" speed="6.08" length="9.04" shape="342.91,1521.30 343.24,1523.83 344.31,1525.47 346.13,1526.21 348.69,1526.05"/>
    </edge>
    <edge id=":cluster_1620413256_1620724991_2986448412_367910492_7" function="internal">
        <lane id=":cluster_1620413256_1620724991_2986448412_367910492_7_0" index="0" disallow="tram rail_urban rail rail_electric ship" speed="6.94" length="12.13" shape="342.91,1521.30 343.26,1525.26 344.45,1527.89 346.48,1529.20 349.34,1529.19"/>
    </edge>
    <edge id=":cluster_1620413256_1620724991_2986448412_367910492_8" function="internal">
        <lane id=":cluster_1620413256_1620724991_2986448412_367910492_8_0" index="0" disallow="tram rail_urban rail rail_electric ship" speed="13.89" length="25.32" shape="342.91,1521.30 342.15,1528.00 340.61,1533.73 339.08,1539.46 338.37,1546.16"/>
        <lane id=":cluster_1620413256_1620724991_2986448412_367910492_8_1" index="1" disallow="tram rail_urban rail rail_electric ship" speed="13.89" length="25.32" shape="339.71,1521.32 338.95,1528.01 337.41,1533.73 335.88,1539.45 335.17,1546.14"/>
    </edge>
    <edge id=":cluster_1620413256_1620724991_2986448412_367910492_10" function="internal">
        <lane id=":cluster_1620413256_1620724991_2986448412_367910492_10_0" index="0" disallow="tram rail_urban rail rail_electric ship" speed="12.41" length="30.28" shape="339.71,1521.32 338.43,1528.72 334.81,1534.51 328.86,1538.68 320.57,1541.24"/>
    </edge>
    <edge id=":cluster_1620413256_1620724991_2986448412_367910492_11" function="internal">
        <lane id=":cluster_1620413256_1620724991_2986448412_367910492_11_0" index="0" disallow="tram rail_urban rail rail_electric ship" speed="11.99" length="28.20" shape="339.71,1521.32 338.41,1527.30 334.69,1532.09 328.55,1535.69 319.99,1538.10"/>
    </edge>
    <edge id=":cluster_1620413256_1620724991_2986448412_367910492_12" function="internal">
        <lane id=":cluster_1620413256_1620724991_2986448412_367910492_12_0" index="0" allow="bicycle" speed="8.33" length="24.69" width="1.00" shape="325.83,1521.41 326.25,1546.09"/>
    </edge>
    <edge id=":cluster_1620413256_1620724991_2986448412_367910492_13" function="internal">
        <lane id=":cluster_1620413256_1620724991_2986448412_367910492_13_0" index="0" disallow="tram rail_urban rail rail_electric ship" speed="9.04" length="16.15" shape="318.82,1531.80 323.41,1530.42 326.66,1528.22 328.57,1525.21 329.15,1521.39"/>
    </edge>
    <edge id=":cluster_1620413256_1620724991_2986448412_367910492_14" function="internal">
        <lane id=":cluster_1620413256_1620724991_2986448412_367910492_14_0" index="0" disallow="tram rail_urban rail rail_electric ship" speed="9.66" length="18.58" shape="318.82,1531.80 324.81,1530.20 329.06,1527.92 331.57,1524.98 332.35,1521.37"/>
    </edge>
    <edge id=":cluster_1620413256_1620724991_2986448412_367910492_15" function="internal">
        <lane id=":cluster_1620413256_1620724991_2986448412_367910492_15_0" index="0" disallow="tram rail_urban rail rail_electric ship" speed="13.89" length="30.45" shape="318.82,1531.80 348.69,1526.05"/>
        <lane id=":cluster_1620413256_1620724991_2986448412_367910492_15_1" index="1" disallow="tram rail_urban rail rail_electric ship" speed="13.89" length="30.45" shape="319.40,1534.95 349.34,1529.19"/>
    </edge>
    <edge id=":cluster_1620413256_1620724991_2986448412_367910492_17" function="internal">
        <lane id=":cluster_1620413256_1620724991_2986448412_367910492_17_0" index="0" disallow="tram rail_urban rail rail_electric ship" speed="10.02" length="26.16" shape="319.40,1534.95 327.73,1534.33 333.67,1535.99 337.22,1539.93 338.37,1546.16"/>
    </edge>
    <edge id=":cluster_1620413256_1620724991_2986448412_367910492_18" function="internal">
        <lane id=":cluster_1620413256_1620724991_2986448412_367910492_18_0" index="0" disallow="tram rail_urban rail rail_electric ship" speed="9.45" length="23.11" shape="319.40,1534.95 326.33,1534.55 331.27,1536.28 334.21,1540.14 335.17,1546.14"/>
    </edge>
    <edge id=":cluster_1620413256_1620724991_2986448412_367910492_19" function="internal">
        <lane id=":cluster_1620413256_1620724991_2986448412_367910492_19_0" index="0" allow="bicycle" speed="8.33" length="24.68" width="1.00" shape="325.25,1546.09 325.27,1521.41"/>
    </edge>
    <edge id=":cluster_367911049_5399833317_6356667832_0" function="internal">
        <lane id=":cluster_367911049_5399833317_6356667832_0_0" index="0" allow="bicycle" speed="8.33" length="45.59" width="1.00" shape="357.89,1302.45 354.17,1310.13 348.25,1323.13 342.56,1336.21 339.53,1344.16"/>
    </edge>
    <edge id=":cluster_367911049_5399833317_6356667832_1" function="internal">
        <lane id=":cluster_367911049_5399833317_6356667832_1_0" index="0" allow="bicycle" speed="2.04" length="1.46" width="1.00" shape="357.89,1302.45 357.48,1302.65 357.20,1302.63 357.05,1302.39 357.02,1301.94"/>
    </edge>
    <edge id=":cluster_367911049_5399833317_6356667832_2" function="internal">
        <lane id=":cluster_367911049_5399833317_6356667832_2_0" index="0" disallow="tram rail_urban rail rail_electric ship" speed="13.89" length="49.34" shape="353.99,1298.03 353.12,1308.39 354.21,1322.69 355.50,1337.06 355.25,1347.59"/>
        <lane id=":cluster_367911049_5399833317_6356667832_2_1" index="1" disallow="tram rail_urban rail rail_electric ship" speed="13.89" length="49.34" shape="350.59,1298.09 349.77,1308.33 350.94,1322.38 352.33,1336.49 352.13,1346.91"/>
    </edge>
    <edge id=":cluster_367911049_5399833317_6356667832_4" function="internal">
        <lane id=":cluster_367911049_5399833317_6356667832_4_0" index="0" allow="bicycle" speed="8.33" length="45.90" width="1.00" shape="338.55,1343.95 341.60,1335.95 347.33,1322.77 353.29,1309.67 357.02,1301.94"/>
    </edge>
    <edge id=":cluster_367911049_5399833317_6356667832_5" function="internal">
        <lane id=":cluster_367911049_5399833317_6356667832_5_0" index="0" allow="bicycle" speed="2.04" length="1.46" width="1.00" shape="338.55,1343.95 338.88,1343.63 339.15,1343.56 339.37,1343.74 339.53,1344.16"/>